
 ===================================================
  XFOIL Version 6.99
  Copyright (C) 2000   Mark Drela, Harold Youngren

  This software comes with ABSOLUTELY NO WARRANTY,
    subject to the GNU General Public License.

  Caveat computor
 ===================================================

 File  xfoil.def  not found

   QUIT    Exit program

  .OPER    Direct operating point(s)
  .MDES    Complex mapping design routine
  .QDES    Surface speed design routine
  .GDES    Geometry design routine

   SAVE f  Write airfoil to labeled coordinate file
   PSAV f  Write airfoil to plain coordinate file
   ISAV f  Write airfoil to ISES coordinate file
   MSAV f  Write airfoil to MSES coordinate file
   REVE    Reverse written-airfoil node ordering
   DELI i  Change written-airfoil file delimiters

   LOAD f  Read buffer airfoil from coordinate file
   NACA i  Set NACA 4,5-digit airfoil and buffer airfoil
   INTE    Set buffer airfoil by interpolating two airfoils
   NORM    Buffer airfoil normalization toggle
   HALF    Halve the number of points in buffer airfoil
   XYCM rr Change CM reference location, currently  0.25000 0.00000

   BEND    Display structural properties of current airfoil

   PCOP    Set current-airfoil panel nodes directly from buffer airfoil points
   PANE    Set current-airfoil panel nodes ( 160 ) based on curvature
  .PPAR    Show/change paneling

  .PLOP    Plotting options

   WDEF f  Write  current-settings file
   RDEF f  Reread current-settings file
   NAME s  Specify new airfoil name
   NINC    Increment name version number

   Z       Zoom    | (available in all menus)
   U       Unzoom  | 

 XFOIL   c>   Max thickness =     0.120032  at x =   0.297
 Max camber    =     0.019999  at x =   0.403

 Buffer airfoil set using 245 points

 Blunt trailing edge.  Gap =  0.00252

 Paneling parameters used...
   Number of panel nodes       160
   Panel bunching parameter    1.000
   TE/LE panel density ratio   0.150
   Refined-area/LE panel density ratio    0.200
   Top    side refined area x/c limits  1.000 1.000
   Bottom side refined area x/c limits  1.000 1.000

 XFOIL   c>  
    Present paneling parameters...
  N  i   Number of panel nodes       160
  P  r   Panel bunching parameter    1.000
  T  r   TE/LE panel density ratio   0.150
  R  r   Refined area/LE  panel density ratio   0.200
  XT rr  Top    side refined area x/c limits    1.000 1.000
  XB rr  Bottom side refined area x/c limits    1.000 1.000
  Z oom
  U nzoom
  H ardcopy

Change what ? (<cr> if nothing else)   c>  
Enter number of panel nodes   i>  
Change what ? (<cr> if nothing else)   c>  
 Blunt trailing edge.  Gap =  0.00252

 Maximum panel corner angle = 11.551   at  i,x,y  =  53   0.0009  -0.0051

    Present paneling parameters...
  N  i   Number of panel nodes       100
  P  r   Panel bunching parameter    1.000
  T  r   TE/LE panel density ratio   0.150
  R  r   Refined area/LE  panel density ratio   0.200
  XT rr  Top    side refined area x/c limits    1.000 1.000
  XB rr  Bottom side refined area x/c limits    1.000 1.000
  Z oom
  U nzoom
  H ardcopy

Change what ? (<cr> if nothing else)   c>  
 XFOIL   c>  
.OPERi   c>   Current iteration limit:          20

Enter new iteration limit   i>  
.OPERi   c>  
 XFOIL   c>  
 XFOIL   c>  
 XFOIL   c>  
 XFOIL   c>  
.OPERi   c>  
.OPERi   c>  
 Sonic Cp =     -1.01      Sonic Q/Qinf =     1.463


.OPERi   c>  
 M  =    0.6500
 Re =  0.1000E+07

.OPERv   c>  
 Polar  1 newly created for accumulation
 Airfoil archived with polar: NACA 2412                                       

Enter  polar save filename  OR  <return> for no file   s>  
 Polar save file will NOT be written

Enter  polar dump filename  OR  <return> for no file   s>  
 Polar dump file will NOT be written

 Polar accumulation enabled

.OPERva   c>   Calculating unit vorticity distributions ...
 Calculating wake trajectory ...
 Calculating source influence matrix ...

 Solving BL system ...

 Initializing BL ...
    side            1  ...
 MRCHUE: Inverse mode at  29     Hk =   5.345
 MRCHUE: Inverse mode at  30     Hk =   7.172
 MRCHUE: Inverse mode at  31     Hk =   5.729
 MRCHUE: Inverse mode at  32     Hk =   2.500
 MRCHUE: Inverse mode at  52     Hk =   2.500
    side            2  ...
 MRCHUE: Inverse mode at  27     Hk =   3.041
 MRCHUE: Inverse mode at  50     Hk =   2.500

 Side 1  free  transition at x/c =  0.4642   31
 Side 2  free  transition at x/c =  0.3960   27

   1   rms: 0.1992E+00   max: -.9008E+00   D at   50  2   RLX: 0.555
       a =  0.000      CL =  0.2680
      Cm = -0.0559     CD =  0.00672   =>   CDf =  0.00592    CDp =  0.00080

 Side 1  free  transition at x/c =  0.4863   31
 Side 2  free  transition at x/c =  0.3775   28

   2   rms: 0.8746E-01   max: -.5572E+00   C at   31  1   RLX: 0.897
       a =  0.000      CL =  0.2813
      Cm = -0.0586     CD =  0.00735   =>   CDf =  0.00582    CDp =  0.00153

 Side 1  free  transition at x/c =  0.5210   33
 Side 2  free  transition at x/c =  0.3944   27

   3   rms: 0.4600E-01   max: -.4990E+00   C at   27  2
       a =  0.000      CL =  0.3123
      Cm = -0.0654     CD =  0.00766   =>   CDf =  0.00570    CDp =  0.00196

 Side 1  free  transition at x/c =  0.5288   34
 Side 2  free  transition at x/c =  0.4182   28

   4   rms: 0.7242E-02   max: -.9522E-01   C at   28  2
       a =  0.000      CL =  0.3156
      Cm = -0.0661     CD =  0.00754   =>   CDf =  0.00555    CDp =  0.00200

 Side 1  free  transition at x/c =  0.5301   34
 Side 2  free  transition at x/c =  0.4213   28

   5   rms: 0.6022E-03   max: 0.6408E-02   C at   34  1
       a =  0.000      CL =  0.3156
      Cm = -0.0661     CD =  0.00755   =>   CDf =  0.00552    CDp =  0.00203

 Side 1  free  transition at x/c =  0.5298   34
 Side 2  free  transition at x/c =  0.4215   28

   6   rms: 0.2339E-05   max: -.1849E-04   D at   35  1
       a =  0.000      CL =  0.3156
      Cm = -0.0661     CD =  0.00755   =>   CDf =  0.00552    CDp =  0.00203
      9.000    4.3625   0.007548   0.001254   0.001436   0.000183    0.5298     #

 Point added to stored polar  1
 Save file unspecified or not available
 Dump file unspecified or not available

.OPERva   c>  
.OPERva   c>  
.OPERva   c>   Calculating wake trajectory ...
 Calculating source influence matrix ...

 Solving BL system ...

 Side 1  free  transition at x/c =  0.5298   34
 Side 2  free  transition at x/c =  0.4215   28

   1   rms: 0.3722E+00   max: -.6550E+01   C at   28  2   RLX: 0.076
       a =  1.000      CL =  0.3267
      Cm = -0.0659     CD =  0.00754   =>   CDf =  0.00552    CDp =  0.00202

 Side 1  free  transition at x/c =  0.5257   34
 Side 2  free  transition at x/c =  0.4366   29

   2   rms: 0.3327E+00   max: -.5381E+01   C at   29  2   RLX: 0.093
       a =  1.000      CL =  0.3390
      Cm = -0.0656     CD =  0.00751   =>   CDf =  0.00549    CDp =  0.00202

 Side 1  free  transition at x/c =  0.5216   33
 Side 2  free  transition at x/c =  0.4504   29

   3   rms: 0.2560E+00   max: -.4252E+01   C at   29  2   RLX: 0.118
       a =  1.000      CL =  0.3550
      Cm = -0.0655     CD =  0.00751   =>   CDf =  0.00548    CDp =  0.00203

 Side 1  free  transition at x/c =  0.5172   33
 Side 2  free  transition at x/c =  0.4762   30

   4   rms: 0.1717E+00   max: -.2151E+01   C at   30  2   RLX: 0.232
       a =  1.000      CL =  0.3814
      Cm = -0.0652     CD =  0.00748   =>   CDf =  0.00541    CDp =  0.00207

 Side 1  free  transition at x/c =  0.5072   33
 Side 2  free  transition at x/c =  0.5334   33

   5   rms: 0.1636E+00   max: -.1449E+01   C at   33  2   RLX: 0.345
       a =  1.000      CL =  0.4071
      Cm = -0.0640     CD =  0.00727   =>   CDf =  0.00527    CDp =  0.00200

 Side 1  free  transition at x/c =  0.4971   33
 Side 2  free  transition at x/c =  0.5593   33

   6   rms: 0.7327E-01   max: -.5691E+00   C at   33  2   RLX: 0.879
       a =  1.000      CL =  0.4560
      Cm = -0.0631     CD =  0.00759   =>   CDf =  0.00525    CDp =  0.00233

 Side 1  free  transition at x/c =  0.4814   32
 Side 2  free  transition at x/c =  0.6656   37

   7   rms: 0.2901E-01   max: -.3856E+00   C at   37  2
       a =  1.000      CL =  0.4611
      Cm = -0.0627     CD =  0.00719   =>   CDf =  0.00497    CDp =  0.00221

 Side 1  free  transition at x/c =  0.4815   32
 Side 2  free  transition at x/c =  0.6888   38

   8   rms: 0.1190E-01   max: -.1721E+00   C at   38  2
       a =  1.000      CL =  0.4599
      Cm = -0.0625     CD =  0.00714   =>   CDf =  0.00485    CDp =  0.00229

 Side 1  free  transition at x/c =  0.4811   32
 Side 2  free  transition at x/c =  0.6739   38

   9   rms: 0.4163E-02   max: -.6763E-01   C at   38  2
       a =  1.000      CL =  0.4603
      Cm = -0.0626     CD =  0.00717   =>   CDf =  0.00489    CDp =  0.00228

 Side 1  free  transition at x/c =  0.4810   32
 Side 2  free  transition at x/c =  0.6767   38

  10   rms: 0.7277E-04   max: -.1184E-02   D at   39  2
       a =  1.000      CL =  0.4603
      Cm = -0.0626     CD =  0.00717   =>   CDf =  0.00487    CDp =  0.00230
      9.000    4.5969   0.007170   0.001279   0.001499   0.000220    0.4810     #

 Point added to stored polar  1
 Save file unspecified or not available
 Dump file unspecified or not available

.OPERva   c>  
.OPERva   c>  
.OPERva   c>   Calculating wake trajectory ...
 Calculating source influence matrix ...

 Solving BL system ...

 Side 1  free  transition at x/c =  0.4810   32
 Side 2  free  transition at x/c =  0.6766   38

   1   rms: 0.3088E+00   max: -.4471E+01   C at   38  2   RLX: 0.112
       a =  2.000      CL =  0.4761
      Cm = -0.0620     CD =  0.00715   =>   CDf =  0.00479    CDp =  0.00236

 Side 1  free  transition at x/c =  0.4749   33
 Side 2  free  transition at x/c =  0.6914   37

   2   rms: 0.2033E+00   max: -.2471E+01   C at   37  2   RLX: 0.202
       a =  2.000      CL =  0.5030
      Cm = -0.0616     CD =  0.00729   =>   CDf =  0.00487    CDp =  0.00243

 Side 1  free  transition at x/c =  0.4675   32
 Side 2  free  transition at x/c =  0.7279   39

   3   rms: 0.2093E+00   max: -.2797E+01   C at   39  2   RLX: 0.179
       a =  2.000      CL =  0.5209
      Cm = -0.0608     CD =  0.00715   =>   CDf =  0.00477    CDp =  0.00237

 Side 1  free  transition at x/c =  0.4620   32
 Side 2  free  transition at x/c =  0.7470   39

   4   rms: 0.1404E+00   max: -.1911E+01   C at   39  2   RLX: 0.262
       a =  2.000      CL =  0.5448
      Cm = -0.0607     CD =  0.00723   =>   CDf =  0.00472    CDp =  0.00251

 Side 1  free  transition at x/c =  0.4534   32
 Side 2  free  transition at x/c =  0.7743   40

   5   rms: 0.8627E-01   max: -.7980E+00   C at   40  2   RLX: 0.627
       a =  2.000      CL =  0.5842
      Cm = -0.0593     CD =  0.00735   =>   CDf =  0.00466    CDp =  0.00269

 Side 1  free  transition at x/c =  0.4419   31
 Side 2  free  transition at x/c =  0.8504   43

   6   rms: 0.3212E-01   max: -.3243E+00   C at   43  2
       a =  2.000      CL =  0.6036
      Cm = -0.0574     CD =  0.00721   =>   CDf =  0.00446    CDp =  0.00275

 Side 1  free  transition at x/c =  0.4329   31
 Side 2  free  transition at x/c =  0.8913   45

   7   rms: 0.1088E-01   max: 0.1574E+00   C at   45  2
       a =  2.000      CL =  0.6012
      Cm = -0.0568     CD =  0.00720   =>   CDf =  0.00432    CDp =  0.00288

 Side 1  free  transition at x/c =  0.4340   31
 Side 2  free  transition at x/c =  0.8812   44

   8   rms: 0.8371E-03   max: -.1119E-01   D at   46  2
       a =  2.000      CL =  0.6011
      Cm = -0.0567     CD =  0.00720   =>   CDf =  0.00433    CDp =  0.00286

 Side 1  free  transition at x/c =  0.4340   31
 Side 2  free  transition at x/c =  0.8808   44

   9   rms: 0.3136E-05   max: -.5143E-04   D at   46  2
       a =  2.000      CL =  0.6011
      Cm = -0.0567     CD =  0.00720   =>   CDf =  0.00434    CDp =  0.00286
      9.000    4.6358   0.007196   0.001301   0.001548   0.000247    0.4340     #

 Point added to stored polar  1
 Save file unspecified or not available
 Dump file unspecified or not available

.OPERva   c>  
.OPERva   c>  
.OPERva   c>   Calculating wake trajectory ...
 Calculating source influence matrix ...

 Solving BL system ...

 Side 1  free  transition at x/c =  0.4340   31
 Side 2  free  transition at x/c =  0.8808   44

   1   rms: 0.2307E+00   max: -.3011E+01   C at   44  2   RLX: 0.166
       a =  3.000      CL =  0.6246
      Cm = -0.0557     CD =  0.00725   =>   CDf =  0.00434    CDp =  0.00291

 Side 1  free  transition at x/c =  0.4242   31
 Side 2  free  transition at x/c =  0.9083   45

   2   rms: 0.1752E+00   max: -.1864E+01   C at   45  2   RLX: 0.268
       a =  3.000      CL =  0.6550
      Cm = -0.0538     CD =  0.00744   =>   CDf =  0.00422    CDp =  0.00322

 Side 1  free  transition at x/c =  0.4137   31
 Side 2  free  transition at x/c =  0.9511   46

   3   rms: 0.1348E+00   max: -.6762E+00   C at   46  2   RLX: 0.739
       a =  3.000      CL =  0.7509
      Cm = -0.0566     CD =  0.00765   =>   CDf =  0.00425    CDp =  0.00340

 Side 1  free  transition at x/c =  0.3796   30
 Side 2  free  transition at x/c =  0.9640   46

   4   rms: 0.3984E-01   max: -.5196E+00   D at   47  2   RLX: 0.962
       a =  3.000      CL =  0.7450
      Cm = -0.0506     CD =  0.00796   =>   CDf =  0.00430    CDp =  0.00365

 MRCHDU: Convergence failed at  47  side 2    Res =  0.1585E+01
 MRCHDU: Convergence failed at  48  side 2    Res =  0.1230E+01
 Side 1  free  transition at x/c =  0.3766   30
 Side 2 forced transition at x/c =  1.0000   48

   5   rms: 0.5228E-01   max: 0.5624E+00   D at   48  2
       a =  3.000      CL =  0.7793
      Cm = -0.0575     CD =  0.00790   =>   CDf =  0.00432    CDp =  0.00357

 Side 1  free  transition at x/c =  0.3688   30
 Side 2 forced transition at x/c =  1.0000   48

   6   rms: 0.7561E-01   max: 0.1211E+01   C at   48  2
       a =  3.000      CL =  0.8108
      Cm = -0.0635     CD =  0.00814   =>   CDf =  0.00434    CDp =  0.00380

 Side 1  free  transition at x/c =  0.3638   29
 Side 2  free  transition at x/c =  0.9579   46

   7   rms: 0.8261E-01   max: -.7427E+00   D at   48  2   RLX: 0.673
       a =  3.000      CL =  0.7541
      Cm = -0.0525     CD =  0.00823   =>   CDf =  0.00434    CDp =  0.00389

 MRCHDU: Convergence failed at  48  side 2    Res =  0.1680E+01
 Side 1  free  transition at x/c =  0.3720   30
 Side 2 forced transition at x/c =  1.0000   48

   8   rms: 0.7297E-01   max: 0.9771E+00   C at   48  2
       a =  3.000      CL =  0.8119
      Cm = -0.0636     CD =  0.00812   =>   CDf =  0.00433    CDp =  0.00380

 Side 1  free  transition at x/c =  0.3633   29
 Side 2  free  transition at x/c =  0.9567   46

   9   rms: 0.8472E-01   max: -.7484E+00   D at   48  2   RLX: 0.668
       a =  3.000      CL =  0.7559
      Cm = -0.0530     CD =  0.00825   =>   CDf =  0.00434    CDp =  0.00391

 MRCHDU: Convergence failed at  48  side 2    Res =  0.1727E+01
 Side 1  free  transition at x/c =  0.3715   30
 Side 2 forced transition at x/c =  1.0000   48

  10   rms: 0.7418E-01   max: 0.1011E+01   C at   48  2
       a =  3.000      CL =  0.8135
      Cm = -0.0640     CD =  0.00813   =>   CDf =  0.00433    CDp =  0.00381

 Side 1  free  transition at x/c =  0.3631   29
 Side 2  free  transition at x/c =  0.9546   46

  11   rms: 0.8691E-01   max: -.7529E+00   D at   48  2   RLX: 0.664
       a =  3.000      CL =  0.7592
      Cm = -0.0537     CD =  0.00827   =>   CDf =  0.00434    CDp =  0.00393

 MRCHDU: Convergence failed at  48  side 2    Res =  0.2036E+01
 Side 1  free  transition at x/c =  0.3709   30
 Side 2  free  transition at x/c =  0.9983   48

  12   rms: 0.2500E-01   max: 0.3217E+00   C at   48  2
       a =  3.000      CL =  0.7754
      Cm = -0.0565     CD =  0.00798   =>   CDf =  0.00433    CDp =  0.00365

 Side 1  free  transition at x/c =  0.3704   30
 Side 2  free  transition at x/c =  0.9818   47

  13   rms: 0.9494E-02   max: -.1230E+00   D at   48  2
       a =  3.000      CL =  0.7708
      Cm = -0.0556     CD =  0.00800   =>   CDf =  0.00432    CDp =  0.00368

 Side 1  free  transition at x/c =  0.3712   30
 Side 2  free  transition at x/c =  0.9870   48

  14   rms: 0.7987E-02   max: 0.1252E+00   C at   48  2
       a =  3.000      CL =  0.7712
      Cm = -0.0556     CD =  0.00800   =>   CDf =  0.00432    CDp =  0.00369

 Side 1  free  transition at x/c =  0.3711   30
 Side 2  free  transition at x/c =  0.9856   47

  15   rms: 0.5167E-03   max: 0.4228E-02   D at   48  2
       a =  3.000      CL =  0.7718
      Cm = -0.0558     CD =  0.00801   =>   CDf =  0.00432    CDp =  0.00369

 Side 1  free  transition at x/c =  0.3710   30
 Side 2  free  transition at x/c =  0.9853   47

  16   rms: 0.5256E-05   max: -.6199E-04   D at   48  2
       a =  3.000      CL =  0.7718
      Cm = -0.0558     CD =  0.00801   =>   CDf =  0.00432    CDp =  0.00369
      9.000    4.3409   0.008008   0.001299   0.001523   0.000224    0.3710     #

 Point added to stored polar  1
 Save file unspecified or not available
 Dump file unspecified or not available

.OPERva   c>  
.OPERva   c>  
.OPERva   c>   Calculating wake trajectory ...
 Calculating source influence matrix ...

 Solving BL system ...

 Side 1  free  transition at x/c =  0.3710   30
 Side 2  free  transition at x/c =  0.9853   47

   1   rms: 0.2176E+00   max: -.1202E+01   D at   30  1   RLX: 0.416
       a =  4.000      CL =  0.8393
      Cm = -0.0546     CD =  0.00861   =>   CDf =  0.00432    CDp =  0.00429

 Side 1  free  transition at x/c =  0.3353   28
 Side 2 forced transition at x/c =  1.0000   48

   2   rms: 0.1176E+00   max: -.1979E+00   n at   47  2
       a =  4.000      CL =  0.9532
      Cm = -0.0560     CD =  0.00909   =>   CDf =  0.00434    CDp =  0.00475

 Side 1  free  transition at x/c =  0.2677   27
 Side 2 forced transition at x/c =  1.0000   47

   3   rms: 0.3267E-01   max: -.4186E+00   D at   27  1
       a =  4.000      CL =  0.9443
      Cm = -0.0548     CD =  0.00937   =>   CDf =  0.00453    CDp =  0.00483

 Side 1  free  transition at x/c =  0.2784   27
 Side 2 forced transition at x/c =  1.0000   47

   4   rms: 0.8799E-02   max: 0.1472E+00   C at   27  1
       a =  4.000      CL =  0.9422
      Cm = -0.0545     CD =  0.00942   =>   CDf =  0.00449    CDp =  0.00492

 Side 1  free  transition at x/c =  0.2735   27
 Side 2 forced transition at x/c =  1.0000   47

   5   rms: 0.3491E-03   max: -.4640E-02   C at   27  1
       a =  4.000      CL =  0.9420
      Cm = -0.0544     CD =  0.00942   =>   CDf =  0.00452    CDp =  0.00490

 Side 1  free  transition at x/c =  0.2736   27
 Side 2 forced transition at x/c =  1.0000   47

   6   rms: 0.1613E-05   max: -.6349E-05   C at   27  1
       a =  4.000      CL =  0.9420
      Cm = -0.0544     CD =  0.00942   =>   CDf =  0.00452    CDp =  0.00490
      9.000    4.1985   0.009422   0.001175   0.001427   0.000252    0.2736     #

 Point added to stored polar  1
 Save file unspecified or not available
 Dump file unspecified or not available

.OPERva   c>  
.OPERva   c>  
.OPERva   c>   Calculating wake trajectory ...
 Calculating source influence matrix ...

 Solving BL system ...

 Side 1  free  transition at x/c =  0.2736   27
 Side 2 forced transition at x/c =  1.0000   47

   1   rms: 0.2358E+00   max: 0.1912E+01   C at   27  1   RLX: 0.397
       a =  5.000      CL =  0.9791
      Cm = -0.0480     CD =  0.01016   =>   CDf =  0.00452    CDp =  0.00565

 Side 1  free  transition at x/c =  0.2326   25
 Side 2 forced transition at x/c =  1.0000   47

   2   rms: 0.1224E+00   max: 0.7636E+00   C at   25  1   RLX: 0.980
       a =  5.000      CL =  1.0545
      Cm = -0.0411     CD =  0.01114   =>   CDf =  0.00453    CDp =  0.00661

 Side 1  free  transition at x/c =  0.1623   23
 Side 2 forced transition at x/c =  1.0000   46

   3   rms: 0.2208E-01   max: -.2023E+00   C at   23  1
       a =  5.000      CL =  1.0429
      Cm = -0.0396     CD =  0.01161   =>   CDf =  0.00470    CDp =  0.00691

 Side 1  free  transition at x/c =  0.1593   23
 Side 2 forced transition at x/c =  1.0000   46

   4   rms: 0.1620E-02   max: 0.1362E-01   C at   23  1
       a =  5.000      CL =  1.0415
      Cm = -0.0394     CD =  0.01165   =>   CDf =  0.00472    CDp =  0.00692

 Side 1  free  transition at x/c =  0.1589   23
 Side 2 forced transition at x/c =  1.0000   46

   5   rms: 0.7638E-05   max: -.9429E-04   C at   23  1
       a =  5.000      CL =  1.0415
      Cm = -0.0394     CD =  0.01165   =>   CDf =  0.00473    CDp =  0.00692
      9.000    4.5216   0.011649   0.000464   0.001279   0.000815    0.1589     #

 Point added to stored polar  1
 Save file unspecified or not available
 Dump file unspecified or not available

.OPERva   c>  
.OPERva   c>  
.OPERva   c>   Calculating wake trajectory ...
 Calculating source influence matrix ...

 Solving BL system ...

 Side 1  free  transition at x/c =  0.1589   23
 Side 2 forced transition at x/c =  1.0000   46

   1   rms: 0.2603E+00   max: 0.3070E+01   C at   23  1   RLX: 0.489
       a =  6.000      CL =  1.0887
      Cm = -0.0316     CD =  0.01306   =>   CDf =  0.00473    CDp =  0.00833

 Side 1  free  transition at x/c =  0.1146   21
 Side 2 forced transition at x/c =  1.0000   46

   2   rms: 0.1018E+00   max: -.4941E+00   C at   46  2
       a =  6.000      CL =  1.1306
      Cm = -0.0220     CD =  0.01454   =>   CDf =  0.00473    CDp =  0.00981

 Side 1  free  transition at x/c =  0.0846   20
 Side 2 forced transition at x/c =  1.0000   46

   3   rms: 0.5099E-01   max: -.6146E+00   D at   20  1   RLX: 0.814
       a =  6.000      CL =  1.1322
      Cm = -0.0230     CD =  0.01486   =>   CDf =  0.00452    CDp =  0.01034

 Side 1  free  transition at x/c =  0.0801   19
 Side 2 forced transition at x/c =  1.0000   46

   4   rms: 0.1297E-01   max: -.1157E+00   D at   20  1
       a =  6.000      CL =  1.1208
      Cm = -0.0219     CD =  0.01517   =>   CDf =  0.00462    CDp =  0.01056

 Side 1  free  transition at x/c =  0.0782   19
 Side 2 forced transition at x/c =  1.0000   46

   5   rms: 0.7775E-03   max: 0.8322E-02   D at   53  1
       a =  6.000      CL =  1.1202
      Cm = -0.0218     CD =  0.01520   =>   CDf =  0.00465    CDp =  0.01055

 Side 1  free  transition at x/c =  0.0781   19
 Side 2 forced transition at x/c =  1.0000   46

   6   rms: 0.5330E-05   max: 0.6488E-04   D at   53  1
       a =  6.000      CL =  1.1202
      Cm = -0.0218     CD =  0.01520   =>   CDf =  0.00465    CDp =  0.01055
      9.000    6.1990   0.015198   0.013032   0.001320  -0.011712    0.0781     #

 Point added to stored polar  1
 Save file unspecified or not available
 Dump file unspecified or not available

.OPERva   c>  
.OPERva   c>  
.OPERva   c>   Calculating wake trajectory ...
 Calculating source influence matrix ...

 Solving BL system ...

 Side 1  free  transition at x/c =  0.0781   19
 Side 2 forced transition at x/c =  1.0000   46

   1   rms: 0.2089E+00   max: 0.9013E+00   C at   19  1   RLX: 0.736
       a =  7.000      CL =  1.1871
      Cm = -0.0100     CD =  0.01825   =>   CDf =  0.00453    CDp =  0.01372

 Side 1  free  transition at x/c =  0.0635   19
 Side 2 forced transition at x/c =  1.0000   45

   2   rms: 0.6455E-01   max: 0.3180E+00   D at   52  1
       a =  7.000      CL =  1.1833
      Cm = -0.0057     CD =  0.02128   =>   CDf =  0.00418    CDp =  0.01710

 Side 1  free  transition at x/c =  0.0534   19
 Side 2 forced transition at x/c =  1.0000   45

   3   rms: 0.2062E-01   max: -.1319E+00   D at   19  1
       a =  7.000      CL =  1.1756
      Cm = -0.0063     CD =  0.02182   =>   CDf =  0.00405    CDp =  0.01777

 Side 1  free  transition at x/c =  0.0532   19
 Side 2 forced transition at x/c =  1.0000   45

   4   rms: 0.1337E-02   max: 0.1271E-01   D at   19  1
       a =  7.000      CL =  1.1750
      Cm = -0.0063     CD =  0.02186   =>   CDf =  0.00410    CDp =  0.01776

 Side 1  free  transition at x/c =  0.0531   19
 Side 2 forced transition at x/c =  1.0000   45

   5   rms: 0.1779E-04   max: 0.1804E-03   D at   49  1
       a =  7.000      CL =  1.1750
      Cm = -0.0063     CD =  0.02186   =>   CDf =  0.00410    CDp =  0.01776
      9.000    9.5012   0.021864   0.013527   0.001887  -0.011639    0.0531     #

 Point added to stored polar  1
 Save file unspecified or not available
 Dump file unspecified or not available

.OPERva   c>  
.OPERva   c>  
.OPERva   c>   Calculating wake trajectory ...
 Calculating source influence matrix ...

 Solving BL system ...

 Side 1  free  transition at x/c =  0.0531   19
 Side 2 forced transition at x/c =  1.0000   45

   1   rms: 0.2513E+00   max: 0.8198E+00   D at   47  1   RLX: 0.589
       a =  8.000      CL =  1.1906
      Cm =  0.0011     CD =  0.02791   =>   CDf =  0.00410    CDp =  0.02380

 Side 1  free  transition at x/c =  0.0505   18
 Side 2 forced transition at x/c =  1.0000   45

   2   rms: 0.1214E+00   max: 0.5388E+00   D at   47  1
       a =  8.000      CL =  1.1768
      Cm =  0.0039     CD =  0.03458   =>   CDf =  0.00367    CDp =  0.03091

 Side 1  free  transition at x/c =  0.0467   18
 Side 2 forced transition at x/c =  1.0000   45

   3   rms: 0.1658E-01   max: 0.1429E+00   D at   44  1
       a =  8.000      CL =  1.1738
      Cm =  0.0028     CD =  0.03478   =>   CDf =  0.00333    CDp =  0.03145

 Side 1  free  transition at x/c =  0.0464   18
 Side 2 forced transition at x/c =  1.0000   45

   4   rms: 0.1211E-02   max: 0.1632E-01   D at   43  1
       a =  8.000      CL =  1.1736
      Cm =  0.0029     CD =  0.03471   =>   CDf =  0.00333    CDp =  0.03137

 Side 1  free  transition at x/c =  0.0464   18
 Side 2 forced transition at x/c =  1.0000   45

   5   rms: 0.1650E-04   max: 0.2528E-03   D at   42  1
       a =  8.000      CL =  1.1736
      Cm =  0.0029     CD =  0.03471   =>   CDf =  0.00333    CDp =  0.03137
      9.000   12.5767   0.034705   0.013276   0.002939  -0.010337    0.0464     #

 Point added to stored polar  1
 Save file unspecified or not available
 Dump file unspecified or not available

.OPERva   c>  
.OPERva   c>  
.OPERva   c>   Calculating wake trajectory ...
 Calculating source influence matrix ...

 Solving BL system ...

 Side 1  free  transition at x/c =  0.0464   18
 Side 2 forced transition at x/c =  1.0000   45

   1   rms: 0.2450E+00   max: 0.8538E+00   D at   41  1   RLX: 0.390
       a =  9.000      CL =  1.1671
      Cm =  0.0044     CD =  0.04112   =>   CDf =  0.00334    CDp =  0.03778

 Side 1  free  transition at x/c =  0.0450   18
 Side 2 forced transition at x/c =  1.0000   45

   2   rms: 0.1520E+00   max: 0.6207E+00   D at   41  1
       a =  9.000      CL =  1.1359
      Cm =  0.0040     CD =  0.05308   =>   CDf =  0.00301    CDp =  0.05006

 Side 1  free  transition at x/c =  0.0426   18
 Side 2 forced transition at x/c =  1.0000   45

   3   rms: 0.2902E-01   max: 0.2201E+00   D at   38  1
       a =  9.000      CL =  1.1256
      Cm =  0.0022     CD =  0.05349   =>   CDf =  0.00258    CDp =  0.05091

 Side 1  free  transition at x/c =  0.0424   18
 Side 2 forced transition at x/c =  1.0000   45

   4   rms: 0.2940E-02   max: 0.3792E-01   D at   37  1
       a =  9.000      CL =  1.1252
      Cm =  0.0023     CD =  0.05329   =>   CDf =  0.00264    CDp =  0.05066

 Side 1  free  transition at x/c =  0.0424   18
 Side 2 forced transition at x/c =  1.0000   45

   5   rms: 0.6979E-04   max: -.9265E-03   D at   37  1
       a =  9.000      CL =  1.1251
      Cm =  0.0024     CD =  0.05328   =>   CDf =  0.00264    CDp =  0.05065
      9.000   14.8281   0.053284   0.012736   0.003810  -0.008926    0.0424     #

 Point added to stored polar  1
 Save file unspecified or not available
 Dump file unspecified or not available

.OPERva   c>  
.OPERva   c>  
.OPERva   c>   Calculating wake trajectory ...
 Calculating source influence matrix ...

 Solving BL system ...

 Side 1  free  transition at x/c =  0.0424   18
 Side 2 forced transition at x/c =  1.0000   45

   1   rms: 0.2215E+00   max: 0.8870E+00   D at   35  1   RLX: 0.235
       a = 10.000      CL =  1.1111
      Cm =  0.0007     CD =  0.05882   =>   CDf =  0.00264    CDp =  0.05618

 Side 1  free  transition at x/c =  0.0415   18
 Side 2 forced transition at x/c =  1.0000   45

   2   rms: 0.1636E+00   max: 0.7107E+00   D at   35  1
       a = 10.000      CL =  1.0609
      Cm = -0.0064     CD =  0.07764   =>   CDf =  0.00251    CDp =  0.07513

 Side 1  free  transition at x/c =  0.0392   18
 Side 2 forced transition at x/c =  1.0000   45

   3   rms: 0.3797E-01   max: 0.2648E+00   D at   33  1
       a = 10.000      CL =  1.0515
      Cm = -0.0071     CD =  0.07674   =>   CDf =  0.00220    CDp =  0.07454

 Side 1  free  transition at x/c =  0.0392   18
 Side 2 forced transition at x/c =  1.0000   45

   4   rms: 0.5817E-02   max: 0.4983E-01   D at   32  1
       a = 10.000      CL =  1.0523
      Cm = -0.0070     CD =  0.07654   =>   CDf =  0.00226    CDp =  0.07427

 Side 1  free  transition at x/c =  0.0392   18
 Side 2 forced transition at x/c =  1.0000   45

   5   rms: 0.2638E-03   max: -.1294E-02   D at   32  1
       a = 10.000      CL =  1.0522
      Cm = -0.0070     CD =  0.07650   =>   CDf =  0.00225    CDp =  0.07424

 Side 1  free  transition at x/c =  0.0392   18
 Side 2 forced transition at x/c =  1.0000   45

   6   rms: 0.7601E-05   max: -.3493E-04   D at   58  2
       a = 10.000      CL =  1.0522
      Cm = -0.0070     CD =  0.07650   =>   CDf =  0.00225    CDp =  0.07424
      9.000   15.6282   0.076495   0.011042   0.003862  -0.007179    0.0392     #

 Point added to stored polar  1
 Save file unspecified or not available
 Dump file unspecified or not available

.OPERva   c>  
.OPERva   c>  
.OPERva   c>  
 CPCALC: Local speed too large. Compressibility corrections invalid.

 CPCALC: Local speed too large. Compressibility corrections invalid.
 Calculating wake trajectory ...
 Calculating source influence matrix ...

 Solving BL system ...

 Side 1  free  transition at x/c =  0.0392   18
 Side 2 forced transition at x/c =  1.0000   45

   1   rms: 0.1914E+00   max: 0.8488E+00   D at   30  1   RLX: 0.068
       a = 11.000      CL =  1.0466
      Cm = -0.0079     CD =  0.07845   =>   CDf =  0.00226    CDp =  0.07619

 Side 1  free  transition at x/c =  0.0390   17
 Side 2 forced transition at x/c =  1.0000   45

   2   rms: 0.1842E+00   max: 0.8126E+00   D at   29  1
       a = 11.000      CL =  0.9791
      Cm = -0.0205     CD =  0.10630   =>   CDf =  0.00225    CDp =  0.10405

 Side 1  free  transition at x/c =  0.0344   17
 Side 2 forced transition at x/c =  1.0000   45

   3   rms: 0.4563E-01   max: 0.3522E+00   D at   28  1
       a = 11.000      CL =  0.9749
      Cm = -0.0213     CD =  0.10399   =>   CDf =  0.00204    CDp =  0.10194

 Side 1  free  transition at x/c =  0.0345   17
 Side 2 forced transition at x/c =  1.0000   45

   4   rms: 0.7795E-02   max: 0.6759E-01   D at   27  1
       a = 11.000      CL =  0.9755
      Cm = -0.0211     CD =  0.10327   =>   CDf =  0.00203    CDp =  0.10125

 Side 1  free  transition at x/c =  0.0344   17
 Side 2 forced transition at x/c =  1.0000   45

   5   rms: 0.3968E-03   max: -.2997E-02   D at   27  1
       a = 11.000      CL =  0.9753
      Cm = -0.0210     CD =  0.10313   =>   CDf =  0.00202    CDp =  0.10111

 Side 1  free  transition at x/c =  0.0344   17
 Side 2 forced transition at x/c =  1.0000   45

   6   rms: 0.7897E-05   max: -.3201E-04   D at   47  2
       a = 11.000      CL =  0.9753
      Cm = -0.0210     CD =  0.10312   =>   CDf =  0.00202    CDp =  0.10110

 CPCALC: Local speed too large. Compressibility corrections invalid.
      9.000   14.4090   0.103122   0.008595   0.004060  -0.004535    0.0344     #

 Point added to stored polar  1
 Save file unspecified or not available
 Dump file unspecified or not available

.OPERva   c>  
.OPERva   c>  
.OPERva   c>  
 CPCALC: Local speed too large. Compressibility corrections invalid.

 CPCALC: Local speed too large. Compressibility corrections invalid.
 Calculating wake trajectory ...
 Calculating source influence matrix ...

 Solving BL system ...

 Side 1  free  transition at x/c =  0.0344   17
 Side 2 forced transition at x/c =  1.0000   45

   1   rms: 0.1627E+00   max: 0.7500E+00   D at   25  1   RLX: 0.264
       a = 12.000      CL =  0.9592
      Cm = -0.0254     CD =  0.11158   =>   CDf =  0.00202    CDp =  0.10956

 Side 1  free  transition at x/c =  0.0332   17
 Side 2 forced transition at x/c =  1.0000   45

   2   rms: 0.1154E+00   max: 0.5554E+00   D at   25  1
       a = 12.000      CL =  0.9244
      Cm = -0.0369     CD =  0.13545   =>   CDf =  0.00200    CDp =  0.13345

 Side 1  free  transition at x/c =  0.0305   17
 Side 2 forced transition at x/c =  1.0000   45

   3   rms: 0.1456E-01   max: -.1105E+00   D at   17  1
       a = 12.000      CL =  0.9309
      Cm = -0.0358     CD =  0.12997   =>   CDf =  0.00199    CDp =  0.12798

 Side 1  free  transition at x/c =  0.0305   17
 Side 2 forced transition at x/c =  1.0000   45

   4   rms: 0.1708E-02   max: 0.1142E-01   D at   21  1
       a = 12.000      CL =  0.9310
      Cm = -0.0357     CD =  0.12955   =>   CDf =  0.00198    CDp =  0.12756

 Side 1  free  transition at x/c =  0.0305   17
 Side 2 forced transition at x/c =  1.0000   45

   5   rms: 0.4603E-04   max: 0.2288E-03   D at   59  2
       a = 12.000      CL =  0.9309
      Cm = -0.0357     CD =  0.12953   =>   CDf =  0.00198    CDp =  0.12754

 CPCALC: Local speed too large. Compressibility corrections invalid.
      9.000   15.5956   0.129529   0.000289   0.000000  -0.000289    0.0305     #

 Point added to stored polar  1
 Save file unspecified or not available
 Dump file unspecified or not available

.OPERva   c>  
.OPERva   c>  
.OPERva   c>  
 CPCALC: Local speed too large. Compressibility corrections invalid.

 CPCALC: Local speed too large. Compressibility corrections invalid.
 Calculating wake trajectory ...
 Calculating source influence matrix ...

 Solving BL system ...

 Side 1  free  transition at x/c =  0.0305   17
 Side 2 forced transition at x/c =  1.0000   45

   1   rms: 0.1233E+00   max: 0.6765E+00   T at   17  1   RLX: 0.196
       a = 13.000      CL =  0.9253
      Cm = -0.0389     CD =  0.13568   =>   CDf =  0.00199    CDp =  0.13370

 Side 1  free  transition at x/c =  0.0299   16
 Side 2 forced transition at x/c =  1.0000   45

   2   rms: 0.1364E+00   max: 0.6540E+00   D at   21  1
       a = 13.000      CL =  0.8937
      Cm = -0.0542     CD =  0.16737   =>   CDf =  0.00200    CDp =  0.16537

 Side 1  free  transition at x/c =  0.0271   16
 Side 2 forced transition at x/c =  1.0000   45

   3   rms: 0.2015E-01   max: 0.1352E+00   D at   16  1
       a = 13.000      CL =  0.9054
      Cm = -0.0524     CD =  0.15864   =>   CDf =  0.00200    CDp =  0.15665

 Side 1  free  transition at x/c =  0.0264   16
 Side 2 forced transition at x/c =  1.0000   45

   4   rms: 0.9785E-03   max: 0.6601E-02   D at   60  2
       a = 13.000      CL =  0.9052
      Cm = -0.0524     CD =  0.15795   =>   CDf =  0.00199    CDp =  0.15596

 Side 1  free  transition at x/c =  0.0264   16
 Side 2 forced transition at x/c =  1.0000   45

   5   rms: 0.3529E-04   max: 0.2113E-03   D at   59  2
       a = 13.000      CL =  0.9051
      Cm = -0.0524     CD =  0.15792   =>   CDf =  0.00199    CDp =  0.15593

 CPCALC: Local speed too large. Compressibility corrections invalid.
      9.000   16.1260   0.157921   0.000303   0.000000  -0.000303    0.0264     #

 Point added to stored polar  1
 Save file unspecified or not available
 Dump file unspecified or not available

.OPERva   c>  
.OPERva   c>  
.OPERva   c>  
 CPCALC: Local speed too large. Compressibility corrections invalid.

 CPCALC: Local speed too large. Compressibility corrections invalid.
 Calculating wake trajectory ...
 Calculating source influence matrix ...

 Solving BL system ...

 Side 1  free  transition at x/c =  0.0264   16
 Side 2 forced transition at x/c =  1.0000   45

   1   rms: 0.1060E+00   max: 0.5686E+00   T at   16  1   RLX: 0.208
       a = 14.000      CL =  0.9041
      Cm = -0.0557     CD =  0.16476   =>   CDf =  0.00200    CDp =  0.16276

 Side 1  free  transition at x/c =  0.0252   16
 Side 2 forced transition at x/c =  1.0000   45

   2   rms: 0.7154E-01   max: 0.5344E+00   T at   16  1
       a = 14.000      CL =  0.9217
      Cm = -0.0666     CD =  0.18787   =>   CDf =  0.00188    CDp =  0.18599

 Side 1  free  transition at x/c =  0.0227   16
 Side 2 forced transition at x/c =  1.0000   44

   3   rms: 0.3937E-01   max: -.2718E+00   D at   17  1
       a = 14.000      CL =  0.9203
      Cm = -0.0658     CD =  0.18029   =>   CDf =  0.00201    CDp =  0.17828

 Side 1  free  transition at x/c =  0.0227   17
 Side 2 forced transition at x/c =  1.0000   44

   4   rms: 0.3043E-01   max: 0.1683E+00   D at   17  1
       a = 14.000      CL =  0.9238
      Cm = -0.0659     CD =  0.18235   =>   CDf =  0.00201    CDp =  0.18035

 Side 1  free  transition at x/c =  0.0227   16
 Side 2 forced transition at x/c =  1.0000   44

   5   rms: 0.5020E-02   max: 0.3662E-01   D at   17  1
       a = 14.000      CL =  0.9239
      Cm = -0.0657     CD =  0.18169   =>   CDf =  0.00201    CDp =  0.17968

 Side 1  free  transition at x/c =  0.0227   16
 Side 2 forced transition at x/c =  1.0000   44

   6   rms: 0.3013E-03   max: 0.1561E-02   D at   59  2
       a = 14.000      CL =  0.9238
      Cm = -0.0657     CD =  0.18148   =>   CDf =  0.00201    CDp =  0.17947

 Side 1  free  transition at x/c =  0.0227   16
 Side 2 forced transition at x/c =  1.0000   44

   7   rms: 0.1476E-04   max: 0.1063E-03   D at   59  2
       a = 14.000      CL =  0.9238
      Cm = -0.0657     CD =  0.18147   =>   CDf =  0.00201    CDp =  0.17946

 CPCALC: Local speed too large. Compressibility corrections invalid.
      9.000   19.6567   0.181465   0.000300   0.000000  -0.000300    0.0227     #

 Point added to stored polar  1
 Save file unspecified or not available
 Dump file unspecified or not available

.OPERva   c>  
.OPERva   c>  
.OPERva   c>  
 CPCALC: Local speed too large. Compressibility corrections invalid.

 CPCALC: Local speed too large. Compressibility corrections invalid.
 Calculating wake trajectory ...
 Calculating source influence matrix ...

 Solving BL system ...

 Side 1  free  transition at x/c =  0.0227   16
 Side 2 forced transition at x/c =  1.0000   44

   1   rms: 0.1193E+00   max: 0.8649E+00   T at   16  1   RLX: 0.413
       a = 15.000      CL =  0.9287
      Cm = -0.0726     CD =  0.19645   =>   CDf =  0.00201    CDp =  0.19444

 Side 1  free  transition at x/c =  0.0214   16
 Side 2 forced transition at x/c =  1.0000   44

   2   rms: 0.5697E-01   max: 0.3758E+00   T at   16  1
       a = 15.000      CL =  0.9444
      Cm = -0.0817     CD =  0.21461   =>   CDf =  0.00201    CDp =  0.21260

 Side 1  free  transition at x/c =  0.0197   16
 Side 2 forced transition at x/c =  1.0000   44

   3   rms: 0.1292E-01   max: -.1010E+00   D at   17  1
       a = 15.000      CL =  0.9462
      Cm = -0.0807     CD =  0.20790   =>   CDf =  0.00201    CDp =  0.20589

 Side 1  free  transition at x/c =  0.0197   16
 Side 2 forced transition at x/c =  1.0000   44

   4   rms: 0.1284E-02   max: -.3590E-02   D at   61  2
       a = 15.000      CL =  0.9469
      Cm = -0.0807     CD =  0.20818   =>   CDf =  0.00202    CDp =  0.20616

 Side 1  free  transition at x/c =  0.0197   16
 Side 2 forced transition at x/c =  1.0000   44

   5   rms: 0.3364E-04   max: -.1731E-03   C at   44  2
       a = 15.000      CL =  0.9468
      Cm = -0.0807     CD =  0.20819   =>   CDf =  0.00202    CDp =  0.20617

 CPCALC: Local speed too large. Compressibility corrections invalid.
      9.000   21.0943   0.208187   0.000299   0.000000  -0.000299    0.0197     #

 Point added to stored polar  1
 Save file unspecified or not available
 Dump file unspecified or not available

.OPERva   c>  
.OPERva   c>  
.OPERva   c>  
 CPCALC: Local speed too large. Compressibility corrections invalid.

 CPCALC: Local speed too large. Compressibility corrections invalid.
 Calculating wake trajectory ...
 Calculating source influence matrix ...

 Solving BL system ...

 Side 1  free  transition at x/c =  0.0197   16
 Side 2 forced transition at x/c =  1.0000   44

   1   rms: 0.7759E-01   max: 0.4630E+00   T at   16  1   RLX: 0.048
       a = 16.000      CL =  0.9451
      Cm = -0.0814     CD =  0.20968   =>   CDf =  0.00202    CDp =  0.20766

 Side 1  free  transition at x/c =  0.0195   16
 Side 2 forced transition at x/c =  1.0000   44

   2   rms: 0.7330E-01   max: 0.4373E+00   T at   16  1
       a = 16.000      CL =  0.9846
      Cm = -0.0951     CD =  0.24120   =>   CDf =  0.00202    CDp =  0.23918

 Side 1  free  transition at x/c =  0.0170   16
 Side 2 forced transition at x/c =  1.0000   44

   3   rms: 0.6659E-01   max: -.5165E+00   D at   16  1   RLX: 0.968
       a = 16.000      CL =  0.9832
      Cm = -0.0950     CD =  0.22742   =>   CDf =  0.00203    CDp =  0.22540

 Side 1  free  transition at x/c =  0.0172   16
 Side 2 forced transition at x/c =  1.0000   44

   4   rms: 0.2469E-01   max: -.9756E-01   T at   16  1
       a = 16.000      CL =  0.9890
      Cm = -0.0932     CD =  0.23031   =>   CDf =  0.00203    CDp =  0.22828

 Side 1  free  transition at x/c =  0.0174   16
 Side 2 forced transition at x/c =  1.0000   44

   5   rms: 0.8495E-03   max: 0.7529E-02   T at   16  1
       a = 16.000      CL =  0.9893
      Cm = -0.0932     CD =  0.23083   =>   CDf =  0.00202    CDp =  0.22880

 Side 1  free  transition at x/c =  0.0174   16
 Side 2 forced transition at x/c =  1.0000   44

   6   rms: 0.2827E-04   max: -.2048E-03   D at   59  2
       a = 16.000      CL =  0.9893
      Cm = -0.0932     CD =  0.23087   =>   CDf =  0.00202    CDp =  0.22885

 CPCALC: Local speed too large. Compressibility corrections invalid.
      9.000   26.4616   0.230869   0.000295   0.000000  -0.000295    0.0174     #

 Point added to stored polar  1
 Save file unspecified or not available
 Dump file unspecified or not available

.OPERva   c>  
.OPERva   c>  
.OPERva   c>  
 CPCALC: Local speed too large. Compressibility corrections invalid.

 CPCALC: Local speed too large. Compressibility corrections invalid.
 Calculating wake trajectory ...
 Calculating source influence matrix ...

 Solving BL system ...

 Side 1  free  transition at x/c =  0.0174   16
 Side 2 forced transition at x/c =  1.0000   44

   1   rms: 0.9352E-01   max: 0.9452E+00   T at   16  1   RLX: 0.152
       a = 17.000      CL =  0.9933
      Cm = -0.0950     CD =  0.23474   =>   CDf =  0.00202    CDp =  0.23272

 Side 1  free  transition at x/c =  0.0171   16
 Side 2 forced transition at x/c =  1.0000   44

   2   rms: 0.8198E-01   max: 0.8445E+00   T at   16  1
       a = 17.000      CL =  1.0326
      Cm = -0.1067     CD =  0.26157   =>   CDf =  0.00202    CDp =  0.25954

 Side 1  free  transition at x/c =  0.0164   15
 Side 2 forced transition at x/c =  1.0000   44

   3   rms: 0.2012E+00   max: 0.1488E+01   D at   17  1
       a = 17.000      CL =  1.0106
      Cm = -0.1134     CD =  0.27794   =>   CDf =  0.00203    CDp =  0.27591

 Side 1  free  transition at x/c =  0.0155   15
 Side 2 forced transition at x/c =  1.0000   44

   4   rms: 0.1263E+00   max: 0.5424E+00   D at   16  1
       a = 17.000      CL =  1.0324
      Cm = -0.1080     CD =  0.26469   =>   CDf =  0.00204    CDp =  0.26265

 Side 1  free  transition at x/c =  0.0155   15
 Side 2 forced transition at x/c =  1.0000   44

   5   rms: 0.1501E-01   max: 0.5216E-01   D at   18  1
       a = 17.000      CL =  1.0314
      Cm = -0.1079     CD =  0.25980   =>   CDf =  0.00203    CDp =  0.25777

 Side 1  free  transition at x/c =  0.0155   15
 Side 2 forced transition at x/c =  1.0000   44

   6   rms: 0.1628E-02   max: 0.9057E-02   D at   58  2
       a = 17.000      CL =  1.0311
      Cm = -0.1078     CD =  0.25757   =>   CDf =  0.00203    CDp =  0.25554

 Side 1  free  transition at x/c =  0.0155   15
 Side 2 forced transition at x/c =  1.0000   44

   7   rms: 0.5291E-04   max: 0.5942E-03   D at   60  2
       a = 17.000      CL =  1.0311
      Cm = -0.1078     CD =  0.25745   =>   CDf =  0.00203    CDp =  0.25542

 CPCALC: Local speed too large. Compressibility corrections invalid.
      9.000   25.1674   0.257451   0.000289   0.000000  -0.000289    0.0155     #

 Point added to stored polar  1
 Save file unspecified or not available
 Dump file unspecified or not available

.OPERva   c>  
.OPERva   c>  
.OPERva   c>  
 CPCALC: Local speed too large. Compressibility corrections invalid.

 CPCALC: Local speed too large. Compressibility corrections invalid.
 Calculating wake trajectory ...
 Calculating source influence matrix ...

 Solving BL system ...

 Side 1  free  transition at x/c =  0.0155   15
 Side 2 forced transition at x/c =  1.0000   44

   1   rms: 0.6886E-01   max: 0.4139E+00   T at   15  1
       a = 18.000      CL =  1.0784
      Cm = -0.1226     CD =  0.29446   =>   CDf =  0.00189    CDp =  0.29257

 Side 1  free  transition at x/c =  0.0147   16
 Side 2 forced transition at x/c =  1.0000   43

   2   rms: 0.1266E-01   max: 0.1348E+00   D at   16  1
       a = 18.000      CL =  1.0787
      Cm = -0.1218     CD =  0.28348   =>   CDf =  0.00202    CDp =  0.28146

 Side 1  free  transition at x/c =  0.0144   16
 Side 2 forced transition at x/c =  1.0000   43

   3   rms: 0.9853E-03   max: -.5177E-02   D at    4  1
       a = 18.000      CL =  1.0791
      Cm = -0.1218     CD =  0.28351   =>   CDf =  0.00203    CDp =  0.28148

 Side 1  free  transition at x/c =  0.0144   16
 Side 2 forced transition at x/c =  1.0000   43

   4   rms: 0.2413E-04   max: -.1818E-03   D at   57  2
       a = 18.000      CL =  1.0791
      Cm = -0.1218     CD =  0.28357   =>   CDf =  0.00202    CDp =  0.28154

 CPCALC: Local speed too large. Compressibility corrections invalid.
      9.000   34.0316   0.283567   0.000279   0.000000  -0.000279    0.0144     #

 Point added to stored polar  1
 Save file unspecified or not available
 Dump file unspecified or not available

.OPERva   c>  
.OPERva   c>  
.OPERva   c>  
 CPCALC: Local speed too large. Compressibility corrections invalid.

 CPCALC: Local speed too large. Compressibility corrections invalid.
 Calculating wake trajectory ...
 Calculating source influence matrix ...

 Solving BL system ...

 Side 1  free  transition at x/c =  0.0144   16
 Side 2 forced transition at x/c =  1.0000   43

   1   rms: 0.6078E-01   max: 0.2733E+00   D at   13  1   RLX: 0.123
       a = 19.000      CL =  1.0803
      Cm = -0.1236     CD =  0.28788   =>   CDf =  0.00202    CDp =  0.28586

 Side 1  free  transition at x/c =  0.0144   16
 Side 2 forced transition at x/c =  1.0000   43

   2   rms: 0.5326E-01   max: 0.2386E+00   D at   12  1
       a = 19.000      CL =  1.1302
      Cm = -0.1361     CD =  0.31948   =>   CDf =  0.00202    CDp =  0.31746

 Side 1  free  transition at x/c =  0.0135   16
 Side 2 forced transition at x/c =  1.0000   43

   3   rms: 0.1951E-01   max: -.2569E+00   D at   16  1
       a = 19.000      CL =  1.1301
      Cm = -0.1356     CD =  0.30864   =>   CDf =  0.00202    CDp =  0.30661

 Side 1  free  transition at x/c =  0.0133   16
 Side 2 forced transition at x/c =  1.0000   43

   4   rms: 0.3795E-02   max: 0.2376E-01   D at   16  1
       a = 19.000      CL =  1.1309
      Cm = -0.1355     CD =  0.30936   =>   CDf =  0.00203    CDp =  0.30733

 Side 1  free  transition at x/c =  0.0133   16
 Side 2 forced transition at x/c =  1.0000   43

   5   rms: 0.9056E-04   max: -.6928E-03   C at   43  2
       a = 19.000      CL =  1.1308
      Cm = -0.1355     CD =  0.30940   =>   CDf =  0.00202    CDp =  0.30737

 CPCALC: Local speed too large. Compressibility corrections invalid.
      9.000   42.5873   0.309399   0.000268   0.000000  -0.000268    0.0133     #

 Point added to stored polar  1
 Save file unspecified or not available
 Dump file unspecified or not available

.OPERva   c>  
.OPERva   c>  
.OPERva   c>  
 CPCALC: Local speed too large. Compressibility corrections invalid.

 CPCALC: Local speed too large. Compressibility corrections invalid.
 Calculating wake trajectory ...
 Calculating source influence matrix ...

 Solving BL system ...

 Side 1  free  transition at x/c =  0.0133   16
 Side 2 forced transition at x/c =  1.0000   43

   1   rms: 0.5900E-01   max: -.2510E+00   C at   43  2   RLX: 0.170
       a = 20.000      CL =  1.1345
      Cm = -0.1379     CD =  0.31550   =>   CDf =  0.00202    CDp =  0.31348

 Side 1  free  transition at x/c =  0.0132   16
 Side 2 forced transition at x/c =  1.0000   43

   2   rms: 0.4907E-01   max: -.2111E+00   C at   43  2
       a = 20.000      CL =  1.1839
      Cm = -0.1496     CD =  0.34552   =>   CDf =  0.00202    CDp =  0.34350

 Side 1  free  transition at x/c =  0.0134   16
 Side 2 forced transition at x/c =  1.0000   43

   3   rms: 0.2245E-01   max: 0.2495E+00   D at   16  1
       a = 20.000      CL =  1.1837
      Cm = -0.1498     CD =  0.34013   =>   CDf =  0.00202    CDp =  0.33811

 Side 1  free  transition at x/c =  0.0132   16
 Side 2 forced transition at x/c =  1.0000   43

   4   rms: 0.3520E-02   max: 0.3279E-01   T at   16  1
       a = 20.000      CL =  1.1836
      Cm = -0.1496     CD =  0.33715   =>   CDf =  0.00202    CDp =  0.33513

 Side 1  free  transition at x/c =  0.0131   16
 Side 2 forced transition at x/c =  1.0000   43

   5   rms: 0.1401E-03   max: 0.1023E-02   C at   43  2
       a = 20.000      CL =  1.1836
      Cm = -0.1496     CD =  0.33698   =>   CDf =  0.00202    CDp =  0.33496

 Side 1  free  transition at x/c =  0.0131   16
 Side 2 forced transition at x/c =  1.0000   43

   6   rms: 0.1275E-04   max: -.9437E-04   D at   59  2
       a = 20.000      CL =  1.1836
      Cm = -0.1496     CD =  0.33702   =>   CDf =  0.00202    CDp =  0.33500

 CPCALC: Local speed too large. Compressibility corrections invalid.
      9.000   53.7349   0.337019   0.000265   0.000000  -0.000265    0.0131     #

 Point added to stored polar  1
 Save file unspecified or not available
 Dump file unspecified or not available

.OPERva   c>  
.OPERva   c>  
.OPERva   c>  
        airfoil                    Re           Mach       NcritT  NcritB  XtripT  XtripB       file
       ------------------------  ------------  ----------  ------  ------  ------  ------    -------------------
 >  1  NACA 2412                 1.000e6       0.650         9.00    9.00   1.000   1.000    

Enter polar output filename   s>  
.OPERva   c>  
 ==============================================================
 Polar  1
  
       XFOIL         Version 6.99
  
 Calculated polar for: NACA 2412                                       
  
 1 1 Reynolds number fixed          Mach number fixed         
  
 xtrf =   1.000 (top)        1.000 (bottom)  
 Mach =   0.650     Re =     1.000 e 6     Ncrit =   9.000  9.000
  
   alpha    CL        CD       CDp       CM     Top_Xtr  Bot_Xtr  Top_Itr  Bot_Itr
  ------ -------- --------- --------- -------- -------- -------- -------- --------
   0.000   0.3156   0.00755  -0.00412  -0.0661   0.5298   0.4215  19.7138  77.9049
   1.000   0.4603   0.00717  -0.00446  -0.0626   0.4810   0.6767  21.5717  87.3049
   2.000   0.6011   0.00720  -0.00559  -0.0567   0.4340   0.8808  23.3699  94.7722
   3.000   0.7718   0.00801  -0.00832  -0.0558   0.3710   0.9853  25.8107  98.9731
   4.000   0.9420   0.00942  -0.01319  -0.0544   0.2736   1.0000  29.6669 100.0000
   5.000   1.0415   0.01165  -0.01834  -0.0394   0.1589   1.0000  34.4011 100.0000
   6.000   1.1202   0.01520  -0.02397  -0.0218   0.0781   1.0000  38.2214 100.0000
   7.000   1.1750   0.02186  -0.02781  -0.0063   0.0531   1.0000  39.8180 100.0000
   8.000   1.1736   0.03471  -0.02220   0.0029   0.0464   1.0000  40.3621 100.0000
   9.000   1.1251   0.05328  -0.00548   0.0024   0.0424   1.0000  40.7110 100.0000
  10.000   1.0522   0.07650   0.01976  -0.0070   0.0392   1.0000  40.9911 100.0000
  11.000   0.9753   0.10312   0.05318  -0.0210   0.0344   1.0000  41.5076 100.0000
  12.000   0.9309   0.12953   0.08752  -0.0357   0.0305   1.0000  41.9417 100.0000
  13.000   0.9051   0.15792   0.12879  -0.0524   0.0264   1.0000  42.4899 100.0000
  14.000   0.9238   0.18147   0.16119  -0.0657   0.0227   1.0000  43.0043 100.0000
  15.000   0.9468   0.20819   0.20213  -0.0807   0.0197   1.0000  43.5190 100.0000
  16.000   0.9893   0.23087   0.23546  -0.0932   0.0174   1.0000  43.9212 100.0000
  17.000   1.0311   0.25745   0.27734  -0.1078   0.0155   1.0000  44.2960 100.0000
  18.000   1.0791   0.28357   0.31872  -0.1218   0.0144   1.0000  44.5244 100.0000
  19.000   1.1308   0.30940   0.35940  -0.1355   0.0133   1.0000  44.7732 100.0000
  20.000   1.1836   0.33702   0.40296  -0.1496   0.0131   1.0000  44.8163 100.0000

.OPERva   c>  
 XFOIL   c>  